Input Parameters:
   integrator                     = md
   tinit                          = 0
   dt                             = 0.002
   nsteps                         = 1000
   init-step                      = 0
   simulation-part                = 1
   comm-mode                      = Linear
   nstcomm                        = 100
   bd-fric                        = 0
   ld-seed                        = 2947599496
   emtol                          = 10
   emstep                         = 0.01
   niter                          = 20
   fcstep                         = 0
   nstcgsteep                     = 1000
   nbfgscorr                      = 10
   rtpi                           = 0.05
   nstxout                        = 50000
   nstvout                        = 0
   nstfout                        = 0
   nstlog                         = 50000
   nstcalcenergy                  = 100
   nstenergy                      = 50000
   nstxout-compressed             = 50000
   compressed-x-precision         = 1000
   cutoff-scheme                  = Verlet
   nstlist                        = 20
   ns-type                        = Grid
   pbc                            = xyz
   periodic-molecules             = FALSE
   verlet-buffer-tolerance        = 0.005
   rlist                          = 1.035
   rlistlong                      = 1.035
   nstcalclr                      = 10
   coulombtype                    = PME
   coulomb-modifier               = Potential-shift
   rcoulomb-switch                = 0
   rcoulomb                       = 1
   epsilon-r                      = 1
   epsilon-rf                     = inf
   vdw-type                       = Cut-off
   vdw-modifier                   = Potential-shift
   rvdw-switch                    = 0
   rvdw                           = 1
   DispCorr                       = EnerPres
   table-extension                = 1
   fourierspacing                 = 0.16
   fourier-nx                     = 72
   fourier-ny                     = 72
   fourier-nz                     = 72
   pme-order                      = 4
   ewald-rtol                     = 1e-05
   ewald-rtol-lj                  = 0.001
   lj-pme-comb-rule               = Geometric
   ewald-geometry                 = 0
   epsilon-surface                = 0
   implicit-solvent               = No
   gb-algorithm                   = Still
   nstgbradii                     = 1
   rgbradii                       = 1
   gb-epsilon-solvent             = 80
   gb-saltconc                    = 0
   gb-obc-alpha                   = 1
   gb-obc-beta                    = 0.8
   gb-obc-gamma                   = 4.85
   gb-dielectric-offset           = 0.009
   sa-algorithm                   = Ace-approximation
   sa-surface-tension             = 2.05016
   tcoupl                         = V-rescale
   nsttcouple                     = 10
   nh-chain-length                = 0
   print-nose-hoover-chain-variables = FALSE
   pcoupl                         = Parrinello-Rahman
   pcoupltype                     = Isotropic
   nstpcouple                     = 10
   tau-p                          = 2
   compressibility (3x3):
      compressibility[    0]={ 4.50000e-05,  0.00000e+00,  0.00000e+00}
      compressibility[    1]={ 0.00000e+00,  4.50000e-05,  0.00000e+00}
      compressibility[    2]={ 0.00000e+00,  0.00000e+00,  4.50000e-05}
   ref-p (3x3):
      ref-p[    0]={ 1.00000e+00,  0.00000e+00,  0.00000e+00}
      ref-p[    1]={ 0.00000e+00,  1.00000e+00,  0.00000e+00}
      ref-p[    2]={ 0.00000e+00,  0.00000e+00,  1.00000e+00}
   refcoord-scaling               = No
   posres-com (3):
      posres-com[0]= 0.00000e+00
      posres-com[1]= 0.00000e+00
      posres-com[2]= 0.00000e+00
   posres-comB (3):
      posres-comB[0]= 0.00000e+00
      posres-comB[1]= 0.00000e+00
      posres-comB[2]= 0.00000e+00
   QMMM                           = FALSE
   QMconstraints                  = 0
   QMMMscheme                     = 0
   MMChargeScaleFactor            = 1
qm-opts:
   ngQM                           = 0
   constraint-algorithm           = Lincs
   continuation                   = TRUE
   Shake-SOR                      = FALSE
   shake-tol                      = 0.0001
   lincs-order                    = 4
   lincs-iter                     = 1
   lincs-warnangle                = 30
   nwall                          = 0
   wall-type                      = 9-3
   wall-r-linpot                  = -1
   wall-atomtype[0]               = -1
   wall-atomtype[1]               = -1
   wall-density[0]                = 0
   wall-density[1]                = 0
   wall-ewald-zfac                = 3
   pull                           = FALSE
   rotation                       = FALSE
   interactiveMD                  = FALSE
   disre                          = No
   disre-weighting                = Conservative
   disre-mixed                    = FALSE
   dr-fc                          = 1000
   dr-tau                         = 0
   nstdisreout                    = 100
   orire-fc                       = 0
   orire-tau                      = 0
   nstorireout                    = 100
   free-energy                    = no
   cos-acceleration               = 0
   deform (3x3):
      deform[    0]={ 0.00000e+00,  0.00000e+00,  0.00000e+00}
      deform[    1]={ 0.00000e+00,  0.00000e+00,  0.00000e+00}
      deform[    2]={ 0.00000e+00,  0.00000e+00,  0.00000e+00}
   simulated-tempering            = FALSE
   E-x:
      n = 0
   E-xt:
      n = 0
   E-y:
      n = 0
   E-yt:
      n = 0
   E-z:
      n = 0
   E-zt:
      n = 0
   swapcoords                     = no
   adress                         = FALSE
   userint1                       = 0
   userint2                       = 0
   userint3                       = 0
   userint4                       = 0
   userreal1                      = 0
   userreal2                      = 0
   userreal3                      = 0
   userreal4                      = 0
grpopts:
   nrdf:     13150.8      242679
   ref-t:         335         335
   tau-t:         0.1         0.1
annealing:          No          No
annealing-npoints:           0           0
   acc:	           0           0           0
   nfreeze:           N           N           N
   energygrp-flags[  0]: 0

Initializing Domain Decomposition on 36 ranks
Dynamic load balancing: auto
Will sort the charge groups at every domain (re)decomposition
Initial maximum inter charge-group distances:
    two-body bonded interactions: 0.456 nm, LJ-14, atoms 321 1321
  multi-body bonded interactions: 0.456 nm, Ryckaert-Bell., atoms 321 1321
Minimum cell size due to bonded interactions: 0.501 nm
Maximum distance for 5 constraints, at 120 deg. angles, all-trans: 0.872 nm
Estimated maximum distance required for P-LINCS: 0.872 nm
This distance will limit the DD cell size, you can override this with -rcon
Guess for relative PME load: 0.15
Will use 30 particle-particle and 6 PME only ranks
This is a guess, check the performance at the end of the log file
Using 6 separate PME ranks, as guessed by mdrun
Scaling the initial minimum size with 1/0.8 (option -dds) = 1.25
Optimizing the DD grid for 30 cells with a minimum initial size of 1.089 nm
The maximum allowed number of cells is: X 10 Y 10 Z 10
Domain decomposition grid 6 x 5 x 1, separate PME ranks 6
PME domain decomposition: 6 x 1 x 1
Interleaving PP and PME ranks
This rank does only particle-particle work.

Domain decomposition rank 0, coordinates 0 0 0

Using 36 MPI threads
Using 1 OpenMP thread per tMPI thread

Will do PME sum in reciprocal space for electrostatic interactions.

Will do ordinary reciprocal space Ewald sum.
Using a Gaussian width (1/beta) of 0.320163 nm for Ewald
Cut-off's:   NS: 1.035   Coulomb: 1   LJ: 1
Long Range LJ corr.: <C6> 3.1973e-04
System total charge: -0.000
Generated table with 1017 data points for Ewald.
Tabscale = 500 points/nm
Generated table with 1017 data points for LJ6.
Tabscale = 500 points/nm
Generated table with 1017 data points for LJ12.
Tabscale = 500 points/nm
Generated table with 1017 data points for 1-4 COUL.
Tabscale = 500 points/nm
Generated table with 1017 data points for 1-4 LJ6.
Tabscale = 500 points/nm
Generated table with 1017 data points for 1-4 LJ12.
Tabscale = 500 points/nm
Potential shift: LJ r^-12: -1.000e+00 r^-6: -1.000e+00, Ewald -1.000e-05
Initialized non-bonded Ewald correction tables, spacing: 9.33e-04 size: 1073

Using SSE4.1 4x4 non-bonded kernels

Using geometric Lennard-Jones combination rule

Initializing Parallel LINear Constraint Solver

The number of constraints is 6700
There are inter charge-group constraints,
will communicate selected coordinates each lincs iteration

Linking all bonded interactions to atoms

The initial number of communication pulses is: X 1 Y 1
The initial domain decomposition cell size is: X 1.82 nm Y 2.18 nm

The maximum allowed distance for charge groups involved in interactions is:
                 non-bonded interactions           1.035 nm
(the following are initial values, they could change due to box deformation)
            two-body bonded interactions  (-rdd)   1.035 nm
          multi-body bonded interactions  (-rdd)   1.035 nm
  atoms separated by up to 5 constraints  (-rcon)  1.819 nm

When dynamic load balancing gets turned on, these settings will change to:
The maximum number of communication pulses is: X 1 Y 1
The minimum size for domain decomposition cells is 1.035 nm
The requested allowed shrink of DD cells (option -dds) is: 0.80
The allowed shrink of domain decomposition cells is: X 0.57 Y 0.47
The maximum allowed distance for charge groups involved in interactions is:
                 non-bonded interactions           1.035 nm
            two-body bonded interactions  (-rdd)   1.035 nm
          multi-body bonded interactions  (-rdd)   1.035 nm
  atoms separated by up to 5 constraints  (-rcon)  1.035 nm

Making 2D domain decomposition grid 6 x 5 x 1, home cell index 0 0 0

Center of mass motion removal mode is Linear
We have the following groups for center of mass motion removal:
  0:  rest

There are: 127790 Atoms
Atom distribution over 30 domains: av 4259 stddev 90 min 4193 max 4370
Initial temperature: 334.497 K

Started mdrun on rank 0 Thu Jan 16 13:41:22 2020
           Step           Time         Lambda
              0        0.00000        0.00000

   Energies (kJ/mol)
          Angle    Proper Dih. Ryckaert-Bell.          LJ-14     Coulomb-14
    1.43311e+04    8.04885e+02    5.97989e+03    9.93770e+03    5.15922e+04
        LJ (SR)  Disper. corr.   Coulomb (SR)   Coul. recip.      Potential
    3.30000e+05   -1.67997e+04   -2.40102e+06    1.37285e+04   -1.99144e+06
    Kinetic En.   Total Energy    Temperature Pres. DC (bar) Pressure (bar)
    3.55717e+05   -1.63573e+06    3.34464e+02   -2.14805e+02   -1.95361e+01
    2.79905e-05

	<====  A V E R A G E S  ====>

	Statistics over 1001 steps using 11 frames

   Energies (kJ/mol)
          Angle    Proper Dih. Ryckaert-Bell.          LJ-14     Coulomb-14
    1.45443e+04    8.13691e+02    6.08673e+03    9.84082e+03    5.16848e+04
        LJ (SR)  Disper. corr.   Coulomb (SR)   Coul. recip.      Potential
    3.32030e+05   -1.68036e+04   -2.40460e+06    1.37083e+04   -1.99269e+06
    Kinetic En.   Total Energy    Temperature Pres. DC (bar) Pressure (bar)
    3.56343e+05   -1.63635e+06    3.35052e+02   -2.14905e+02   -1.63619e+00
   Constr. rmsd
    0.00000e+00

          Box-X          Box-Y          Box-Z
    1.09139e+01    1.09139e+01    1.09139e+01

   Total Virial (kJ/mol)
    1.16720e+05    6.03393e+02   -3.86433e+02
    5.90612e+02    1.20193e+05   -1.15953e+03
   -3.98859e+02   -1.14725e+03    1.19632e+05

   Pressure (bar)
    5.13804e+01   -1.68338e+01    1.26919e+01
   -1.65069e+01   -3.22849e+01    3.22965e+01
    1.30097e+01    3.19828e+01   -2.40040e+01

      T-Protein  T-non-Protein
    3.36029e+02    3.34999e+02
